*SPEF "IEEE 1481-1998"
*DESIGN "multiplexor"
*DATE "Fri Oct  3 23:06:08 2025"
*VENDOR "Cadence Design Systems, Inc."
*PROGRAM "Innovus"
*VERSION "21.17-s075_1"
*DESIGN_FLOW "PIN_CAP NONE" "NAME_SCOPE LOCAL"
*DIVIDER /
*DELIMITER :
*BUS_DELIMITER []
*T_UNIT 1 NS
*C_UNIT 1 PF
*R_UNIT 1 OHM
*L_UNIT 1 HENRY

// MMMC spef file for corner 'rccorners'

*NAME_MAP

*1 in0[4]
*2 in0[3]
*3 in0[2]
*4 in0[1]
*5 in0[0]
*6 in1[4]
*7 in1[3]
*8 in1[2]
*9 in1[1]
*10 in1[0]
*11 sel
*12 mux_out[4]
*13 mux_out[3]
*14 mux_out[2]
*15 mux_out[1]
*16 mux_out[0]
*17 g136__2398
*18 g140__5107
*19 g137__6260
*20 g138__4319
*21 g139__8428


*PORTS

*1 I *C 4 18.9
*2 I *C 0 8.5
*3 I *C 0 7
*4 I *C 0 5.5
*5 I *C 0 4
*6 I *C 7 0
*7 I *C 5.5 0
*8 I *C 4 0
*9 I *C 7.5 18.9
*10 I *C 6 18.9
*11 I *C 10 0
*12 O *C 27.84 10
*13 O *C 27.84 8.5
*14 O *C 27.84 7
*15 O *C 27.84 5.5
*16 O *C 27.84 4


*D_NET *1 0.00110358

*CONN
*P *1 I *C 4 18.9 *L 0
*I *17:A0 I *C 6.72 13.44 *L 0.00263 *D sg13g2_mux2_1

*CAP
1 *1 7.99914e-05
2 *1:1 0.000132486
3 *1:2 0.000142485
4 *1:3 8.99904e-05
5 *1:4 0.000329313
6 *1:5 0.000329313

*RES
1 *1:5 *17:A0 20
2 *1:4 *1:5 1.77278
3 *1:3 *1:4 20
4 *1:2 *1:3 0.741582
5 *1:1 *1:2 0.432589
6 *1 *1:1 0.659184
*END

*D_NET *2 0.000897404

*CONN
*I *21:A0 I *C 6.72 9.24 *L 0.00263 *D sg13g2_mux2_1
*P *2 I *C 0 8.5 *L 0

*CAP
1 *2:2 0.000402457
2 *2:4 0.000448702
3 *2 4.6245e-05

*RES
1 *2:4 *2 0.381091
2 *2:2 *2:4 3.31652
3 *2:1 *21:A0 20
4 *2:1 *2:2 20
5 *2:0 *2:1 0.347625
*END

*D_NET *3 0.000971635

*CONN
*P *3 I *C 0 7 *L 0
*I *18:A0 I *C 6.72 5.88 *L 0.00263 *D sg13g2_mux2_1

*CAP
1 *3 0.000312467
2 *3:1 0.000329965
3 *3:2 0.000107488
4 *3:3 8.99904e-05
5 *3:4 6.58626e-05
6 *3:5 6.58626e-05

*RES
1 *3:5 *18:A0 20
2 *3:4 *3:5 0.354556
3 *3:3 *3:4 20
4 *3:2 *3:3 0.741582
5 *3:1 *3:2 0.144196
6 *3 *3:1 2.57494
*END

*D_NET *4 0.00308838

*CONN
*P *4 I *C 0 5.5 *L 0
*I *19:A0 I *C 14.88 13.44 *L 0.00263 *D sg13g2_mux2_1

*CAP
1 *4 0.000852409
2 *4:1 0.000876156
3 *4:2 2.37475e-05
4 *4:3 0.000197588
5 *4:4 0.000235224
6 *4:5 0.000169361
7 *4:6 0.000169361
8 *4:7 0.000301086
9 *4:8 0.00026345

*RES
1 *4:8 *19:A0 20
2 *4:7 *4:8 1.41823
3 *4:6 *4:7 0.202604
4 *4:5 *4:6 0.709113
5 *4:4 *4:5 0.202604
6 *4:3 *4:4 1.06367
7 *4:2 *4:3 20
8 *4:1 *4:2 0.195695
9 *4 *4:1 7.02443
*END

*D_NET *5 0.00209988

*CONN
*P *5 I *C 0 4 *L 0
*I *20:A0 I *C 14.88 5.88 *L 0.00263 *D sg13g2_mux2_1

*CAP
1 *5 0.000102489
2 *5:1 0.000141235
3 *5:2 0.000848659
4 *5:3 0.000809913
5 *5:4 9.87939e-05
6 *5:5 9.87939e-05

*RES
1 *5:5 *20:A0 20
2 *5:4 *5:5 0.531834
3 *5:3 *5:4 20
4 *5:2 *5:3 6.67424
5 *5:1 *5:2 0.319292
6 *5 *5:1 0.844579
*END

*D_NET *6 0.00233727

*CONN
*P *6 I *C 7 0 *L 0
*I *17:A1 I *C 7.2 13.44 *L 0.00273 *D sg13g2_mux2_1

*CAP
1 *6 7.24922e-05
2 *6:1 7.24922e-05
3 *6:2 0.00075742
4 *6:3 0.000832692
5 *6:4 0.000338722
6 *6:5 0.00026345

*RES
1 *6:5 *17:A1 20
2 *6:4 *6:5 1.41823
3 *6:3 *6:4 0.405207
4 *6:2 *6:3 4.0774
5 *6:1 *6:2 20
6 *6 *6:1 0.597385
*END

*D_NET *7 0.00157556

*CONN
*P *7 I *C 5.5 0 *L 0
*I *21:A1 I *C 7.2 9.24 *L 0.00273 *D sg13g2_mux2_1

*CAP
1 *7 1.62483e-05
2 *7:1 1.62483e-05
3 *7:2 0.000559832
4 *7:3 0.000672739
5 *7:4 0.000211701
6 *7:5 9.87939e-05

*RES
1 *7:5 *21:A1 20
2 *7:4 *7:5 0.531834
3 *7:3 *7:4 0.607811
4 *7:2 *7:3 3.01373
5 *7:1 *7:2 20
6 *7 *7:1 0.133897
*END

*D_NET *8 0.00122943

*CONN
*P *8 I *C 4 0 *L 0
*I *18:A1 I *C 7.2 5.88 *L 0.00273 *D sg13g2_mux2_1

*CAP
1 *8 4.99946e-05
2 *8:1 0.000102489
3 *8:2 0.000202478
4 *8:3 0.000149984
5 *8:4 0.000362244
6 *8:5 0.000362244

*RES
1 *8:5 *18:A1 20
2 *8:4 *8:5 1.95006
3 *8:3 *8:4 20
4 *8:2 *8:3 1.23597
5 *8:1 *8:2 0.432589
6 *8 *8:1 0.41199
*END

*D_NET *9 0.00170688

*CONN
*P *9 I *C 7.5 18.9 *L 0
*I *19:A1 I *C 15.36 13.44 *L 0.00273 *D sg13g2_mux2_1

*CAP
1 *9 0.000491197
2 *9:1 0.000491197
3 *9:2 0.000362244
4 *9:3 0.000362244

*RES
1 *9:3 *19:A1 20
2 *9:2 *9:3 1.95006
3 *9:1 *9:2 20
4 *9 *9:1 4.0478
*END

*D_NET *10 0.00329043

*CONN
*P *10 I *C 6 18.9 *L 0
*I *20:A1 I *C 15.36 5.88 *L 0.00273 *D sg13g2_mux2_1

*CAP
1 *10:0 0.000461038
2 *10:1 0.000461038
3 *10:2 0.000599936
4 *10:3 1.49984e-05
5 *10:4 0.000599936
6 *10 1.49984e-05
7 *10:6 9.87939e-05
8 *10:7 0.00013643
9 *10:8 0.000334018
10 *10:9 0.000334018
11 *10:10 0.00013643
12 *10:11 9.87939e-05

*RES
1 *10:11 *20:A1 20
2 *10:10 *10:11 0.531834
3 *10:9 *10:10 0.202604
4 *10:8 *10:9 1.5955
5 *10:7 *10:8 0.202604
6 *10:6 *10:7 0.531834
7 *10:4 *10:6 20
8 *10:3 *10 0.123597
9 *10:2 *10:4 4.94388
10 *10:1 *10:3 20
11 *10:0 *10:2 20
12 *10:0 *10:1 2.48189
*END

*D_NET *11 0.00504698

*CONN
*I *18:S I *C 5.28 5.88 *L 0.0047 *D sg13g2_mux2_1
*I *21:S I *C 5.28 9.24 *L 0.0047 *D sg13g2_mux2_1
*P *11 I *C 10 0 *L 0
*I *17:S I *C 5.28 13.44 *L 0.0047 *D sg13g2_mux2_1
*I *20:S I *C 13.44 5.88 *L 0.0047 *D sg13g2_mux2_1
*I *19:S I *C 13.44 13.44 *L 0.0047 *D sg13g2_mux2_1

*CAP
1 *11:0 0.000296382
2 *11:1 0.000239974
3 *11:2 0.000559832
4 *11:3 0.000614934
5 *11:4 0.000592763
6 *11:6 0.000269971
7 *11:7 0.000159983
8 *11:8 0.000329313
9 *11:10 0.000296382
10 *11 5.49941e-05
11 *11:13 0.000395176
12 *11:14 0.00013643
13 *11:16 0.000334018
14 *11:17 0.000334018
15 *11:18 0.000235224
16 *11:19 0.000197588

*RES
1 *11:19 *19:S 20
2 *11:18 *11:19 1.06367
3 *11:17 *11:18 0.202604
4 *11:16 *11:17 1.5955
5 *11:14 *11:16 0.202604
6 *11:13 *20:S 20
7 *11:13 *11:14 0.531834
8 *11:10 *11:13 1.5955
9 *11:8 *17:S 20
10 *11:7 *11 0.453189
11 *11:6 *11:10 20
12 *11:4 *21:S 20
13 *11:4 *11:8 1.77278
14 *11:3 *11:7 0.865179
15 *11:3 *11:6 2.22475
16 *11:2 *18:S 20
17 *11:2 *11:4 1.41823
18 *11:1 *11:3 1.97755
19 *11:0 *11:2 1.5955
20 *11:0 *11:1 20
*END

*D_NET *12 0.00270406

*CONN
*I *17:X O *C 8.64 12.6 *L 0 *D sg13g2_mux2_1
*P *12 O *C 27.84 10 *L 0.08

*CAP
1 *17:X 5.99936e-05
2 *12:1 5.99936e-05
3 *12:2 0.000164657
4 *12:3 0.000164657
5 *12:4 4.99946e-06
6 *12:5 0.00112738
7 *12:6 0.00112238

*RES
1 *12:6 *12 20
2 *12:5 *12:6 9.24917
3 *12:4 *12:5 0.041199
4 *12:3 *12:4 20
5 *12:2 *12:3 0.886391
6 *12:1 *12:2 20
7 *17:X *12:1 0.494388
*END

*D_NET *13 0.00266721

*CONN
*I *21:X O *C 8.64 10.08 *L 0 *D sg13g2_mux2_1
*P *13 O *C 27.84 8.5 *L 0.08

*CAP
1 *21:X 8.99904e-05
2 *13:1 0.000116238
3 *13:2 0.00101614
4 *13:3 0.00101614
5 *13:4 8.62408e-05
6 *13:5 0.000158733
7 *13:6 0.000141235
8 *13:7 4.24954e-05

*RES
1 *13:7 *13 20
2 *13:6 *13:7 0.350191
3 *13:5 *13:6 0.81368
4 *13:4 *13:5 0.494388
5 *13:3 *13:4 0.216295
6 *13:2 *13:3 8.1574
7 *13:1 *13:2 0.216295
8 *21:X *13:1 0.741582
*END

*D_NET *14 0.00266319

*CONN
*I *18:X O *C 8.64 5.04 *L 0 *D sg13g2_mux2_1
*P *14 O *C 27.84 7 *L 0.08

*CAP
1 *18:X 0.000119987
2 *14:1 0.000119987
3 *14:2 0.000131725
4 *14:3 0.000131725
5 *14:4 1.74981e-05
6 *14:5 0.00107988
7 *14:6 0.00106239

*RES
1 *14:6 *14 20
2 *14:5 *14:6 8.75479
3 *14:4 *14:5 0.144196
4 *14:3 *14:4 20
5 *14:2 *14:3 0.709113
6 *14:1 *14:2 20
7 *18:X *14:1 0.988776
*END

*D_NET *15 0.00262401

*CONN
*I *19:X O *C 16.8 12.6 *L 0 *D sg13g2_mux2_1
*P *15 O *C 27.84 5.5 *L 0.08

*CAP
1 *19:X 8.99904e-05
2 *15:1 0.000142485
3 *15:2 0.000532443
4 *15:3 0.000532443
5 *15:4 0.000112488
6 *15:5 5.99936e-05
7 *15:6 0.000523765
8 *15:7 0.000577082
9 *15 5.33173e-05

*RES
1 *15:7 *15 0.287022
2 *15:6 *15:7 2.81957
3 *15:5 *15:6 20
4 *15:4 *15:5 0.494388
5 *15:3 *15:4 0.432589
6 *15:2 *15:3 3.9551
7 *15:1 *15:2 0.432589
8 *19:X *15:1 0.741582
*END

*D_NET *16 0.0016737

*CONN
*I *20:X O *C 16.8 5.04 *L 0 *D sg13g2_mux2_1
*P *16 O *C 27.84 4 *L 0.08

*CAP
1 *20:X 8.99904e-05
2 *16:1 0.000142485
3 *16:2 0.000532443
4 *16:3 0.000532443
5 *16:4 0.000112488
6 *16:5 5.99936e-05
7 *16:6 4.86129e-05
8 *16:7 0.00010193
9 *16 5.33173e-05

*RES
1 *16:7 *16 0.287022
2 *16:6 *16:7 0.261696
3 *16:5 *16:6 20
4 *16:4 *16:5 0.494388
5 *16:3 *16:4 0.432589
6 *16:2 *16:3 3.9551
7 *16:1 *16:2 0.432589
8 *20:X *16:1 0.741582
*END

